 30
 File generate by ParserQE in Angstroms: 7.574961  7.574958  30.123278  90.000000  90.000000  59.999988
 Cu    1.262494   0.728901  12.999995
 Cu    3.787480   0.728901  12.999995
 Cu    6.312467   0.728901  12.999995
 Cu    2.524987   2.915604  12.999995
 Cu    5.049974   2.915604  12.999995
 Cu    7.574961   2.915604  12.999995
 Cu    3.787480   5.102306  12.999995
 Cu    6.312467   5.102306  12.999995
 Cu    8.837454   5.102306  12.999995
 Cu   -0.000000   1.457802  15.061639
 Cu    2.524987   1.457802  15.061639
 Cu    5.049974   1.457802  15.061639
 Cu    1.262494   3.644504  15.061639
 Cu    3.787480   3.644504  15.061639
 Cu    6.312467   3.644504  15.061639
 Cu    2.524987   5.831208  15.061639
 Cu    5.049974   5.831208  15.061639
 Cu    7.574961   5.831208  15.061639
 Cu    0.000000   0.000000  17.209002
 Cu    2.525031   0.000051  17.208447
 Cu    5.049929   0.000051  17.208447
 Cu    1.262560   2.186716  17.208447
 Cu    3.787480   2.186703  17.208970
 Cu    6.312401   2.186716  17.208447
 Cu    2.525009   4.373341  17.208447
 Cu    5.049952   4.373341  17.208447
 Cu    7.574961   4.373406  17.208544
 C     0.000000   0.000000  20.709002
 O     1.160612   0.000000  20.709002
 O    -1.160612   0.000000  20.709002
